
 OpenBabel03282505063D

 62 66  0  0  0  0  0  0  0  0999 V2000
    2.3644   -0.4100    0.5918 O   0  0  0  0  0  0  0  0  0  0  0  0
    1.0008   -0.3712    0.6118 C   0  0  0  0  0  0  0  0  0  0  0  0
    0.2825    0.3946   -0.2999 C   0  0  0  0  0  0  0  0  0  0  0  0
   -1.1139    0.4085   -0.2341 C   0  0  0  0  0  0  0  0  0  0  0  0
   -1.7940   -0.3373    0.7430 C   0  0  0  0  0  0  0  0  0  0  0  0
   -3.3065   -0.3055    0.8231 C   0  0  0  0  0  0  0  0  0  0  0  0
   -3.9638   -1.3941   -0.0480 C   0  0  0  0  0  0  0  0  0  0  0  0
   -5.4487   -1.4448   -0.0041 N   0  0  0  0  0  0  0  0  0  0  0  0
   -6.0456   -0.1640   -0.4215 C   0  0  0  0  0  0  0  0  0  0  0  0
   -7.5685   -0.2364   -0.4735 C   0  0  0  0  0  0  0  0  0  0  0  0
   -8.0375   -1.2835   -1.4831 C   0  0  0  0  0  0  0  0  0  0  0  0
   -7.6423   -0.9839   -2.8774 N   0  0  0  0  0  0  0  0  0  0  0  0
   -8.1145    0.1425   -3.4754 C   0  0  0  0  0  0  0  0  0  0  0  0
   -8.7980    1.1192   -2.9257 N   0  0  0  0  0  0  0  0  0  0  0  0
   -9.1100    1.9897   -3.9366 C   0  0  0  0  0  0  0  0  0  0  0  0
   -9.8481    3.1816   -3.8941 C   0  0  0  0  0  0  0  0  0  0  0  0
  -10.0791    3.8751   -5.0888 C   0  0  0  0  0  0  0  0  0  0  0  0
   -9.5796    3.3952   -6.3003 C   0  0  0  0  0  0  0  0  0  0  0  0
   -8.8181    2.2232   -6.3572 C   0  0  0  0  0  0  0  0  0  0  0  0
   -8.5978    1.5477   -5.1495 C   0  0  0  0  0  0  0  0  0  0  0  0
   -7.9090    0.3999   -4.8179 N   0  0  0  0  0  0  0  0  0  0  0  0
   -7.0486   -0.3410   -5.7269 C   0  0  0  0  0  0  0  0  0  0  0  0
   -7.6894   -1.5949   -6.2770 C   0  0  0  0  0  0  0  0  0  0  0  0
   -9.0738   -1.7024   -6.4982 C   0  0  0  0  0  0  0  0  0  0  0  0
   -9.6267   -2.8918   -6.9723 C   0  0  0  0  0  0  0  0  0  0  0  0
   -8.7936   -3.9677   -7.2559 C   0  0  0  0  0  0  0  0  0  0  0  0
   -9.3294   -5.1189   -7.6823 F   0  0  0  0  0  0  0  0  0  0  0  0
   -7.4186   -3.8700   -7.1008 C   0  0  0  0  0  0  0  0  0  0  0  0
   -6.8646   -2.6814   -6.6209 C   0  0  0  0  0  0  0  0  0  0  0  0
   -7.4371   -2.6263   -1.0424 C   0  0  0  0  0  0  0  0  0  0  0  0
   -5.9148   -2.5530   -0.8636 C   0  0  0  0  0  0  0  0  0  0  0  0
   -1.0486   -1.1110    1.6432 C   0  0  0  0  0  0  0  0  0  0  0  0
    0.3462   -1.1246    1.5781 C   0  0  0  0  0  0  0  0  0  0  0  0
    2.6787    0.1805   -0.1118 H   0  0  0  0  0  0  0  0  0  0  0  0
    0.7861    0.9868   -1.0572 H   0  0  0  0  0  0  0  0  0  0  0  0
   -1.6700    1.0138   -0.9467 H   0  0  0  0  0  0  0  0  0  0  0  0
   -3.6339    0.6944    0.5149 H   0  0  0  0  0  0  0  0  0  0  0  0
   -3.6173   -0.4194    1.8691 H   0  0  0  0  0  0  0  0  0  0  0  0
   -3.5822   -2.3672    0.2892 H   0  0  0  0  0  0  0  0  0  0  0  0
   -3.6274   -1.2693   -1.0863 H   0  0  0  0  0  0  0  0  0  0  0  0
   -5.6508    0.1527   -1.3947 H   0  0  0  0  0  0  0  0  0  0  0  0
   -5.7934    0.6158    0.3043 H   0  0  0  0  0  0  0  0  0  0  0  0
   -7.9774    0.7548   -0.6853 H   0  0  0  0  0  0  0  0  0  0  0  0
   -7.9512   -0.5040    0.5220 H   0  0  0  0  0  0  0  0  0  0  0  0
   -9.1317   -1.3687   -1.4458 H   0  0  0  0  0  0  0  0  0  0  0  0
   -7.6441   -1.8188   -3.4589 H   0  0  0  0  0  0  0  0  0  0  0  0
  -10.2378    3.5441   -2.9496 H   0  0  0  0  0  0  0  0  0  0  0  0
  -10.6610    4.7933   -5.0697 H   0  0  0  0  0  0  0  0  0  0  0  0
   -9.7870    3.9413   -7.2184 H   0  0  0  0  0  0  0  0  0  0  0  0
   -8.4378    1.8541   -7.3038 H   0  0  0  0  0  0  0  0  0  0  0  0
   -6.1352   -0.5820   -5.1694 H   0  0  0  0  0  0  0  0  0  0  0  0
   -6.7592    0.3174   -6.5538 H   0  0  0  0  0  0  0  0  0  0  0  0
   -9.7451   -0.8707   -6.2902 H   0  0  0  0  0  0  0  0  0  0  0  0
  -10.6987   -2.9870   -7.1137 H   0  0  0  0  0  0  0  0  0  0  0  0
   -6.7870   -4.7177   -7.3492 H   0  0  0  0  0  0  0  0  0  0  0  0
   -5.7837   -2.6104   -6.5113 H   0  0  0  0  0  0  0  0  0  0  0  0
   -7.6812   -3.4149   -1.7649 H   0  0  0  0  0  0  0  0  0  0  0  0
   -7.8926   -2.9257   -0.0885 H   0  0  0  0  0  0  0  0  0  0  0  0
   -5.4519   -2.4895   -1.8562 H   0  0  0  0  0  0  0  0  0  0  0  0
   -5.5874   -3.5013   -0.4189 H   0  0  0  0  0  0  0  0  0  0  0  0
   -1.5470   -1.7026    2.4077 H   0  0  0  0  0  0  0  0  0  0  0  0
    0.9206   -1.7169    2.2845 H   0  0  0  0  0  0  0  0  0  0  0  0
  1  2  1  0  0  0  0
  1 34  1  0  0  0  0
  2  3  1  0  0  0  0
  2 33  2  0  0  0  0
  3  4  2  0  0  0  0
  3 35  1  0  0  0  0
  4  5  1  0  0  0  0
  4 36  1  0  0  0  0
  5  6  1  0  0  0  0
  5 32  2  0  0  0  0
  6  7  1  0  0  0  0
  6 37  1  0  0  0  0
  6 38  1  0  0  0  0
  7  8  1  0  0  0  0
  7 39  1  0  0  0  0
  7 40  1  0  0  0  0
  8  9  1  0  0  0  0
  8 31  1  0  0  0  0
  9 10  1  0  0  0  0
  9 41  1  0  0  0  0
  9 42  1  0  0  0  0
 10 11  1  0  0  0  0
 10 43  1  0  0  0  0
 10 44  1  0  0  0  0
 11 12  1  0  0  0  0
 11 30  1  0  0  0  0
 11 45  1  0  0  0  0
 12 13  1  0  0  0  0
 12 46  1  0  0  0  0
 13 14  2  0  0  0  0
 13 21  1  0  0  0  0
 14 15  1  0  0  0  0
 15 16  1  0  0  0  0
 15 20  2  0  0  0  0
 16 17  2  0  0  0  0
 16 47  1  0  0  0  0
 17 18  1  0  0  0  0
 17 48  1  0  0  0  0
 18 19  2  0  0  0  0
 18 49  1  0  0  0  0
 19 20  1  0  0  0  0
 19 50  1  0  0  0  0
 20 21  1  0  0  0  0
 21 22  1  0  0  0  0
 22 23  1  0  0  0  0
 22 51  1  0  0  0  0
 22 52  1  0  0  0  0
 23 24  1  0  0  0  0
 23 29  2  0  0  0  0
 24 25  2  0  0  0  0
 24 53  1  0  0  0  0
 25 26  1  0  0  0  0
 25 54  1  0  0  0  0
 26 27  1  0  0  0  0
 26 28  2  0  0  0  0
 28 29  1  0  0  0  0
 28 55  1  0  0  0  0
 29 56  1  0  0  0  0
 30 31  1  0  0  0  0
 30 57  1  0  0  0  0
 30 58  1  0  0  0  0
 31 59  1  0  0  0  0
 31 60  1  0  0  0  0
 32 33  1  0  0  0  0
 32 61  1  0  0  0  0
 33 62  1  0  0  0  0
M  END
$$$$
