
 OpenBabel03282505333D

 67 70  0  0  1  0  0  0  0  0999 V2000
  -10.9992   -3.2179    8.6250 F   0  0  0  0  0  0  0  0  0  0  0  0
  -10.2006   -3.6316    7.6323 C   0  0  0  0  0  0  0  0  0  0  0  0
  -10.3935   -4.8751    7.0776 C   0  0  0  0  0  0  0  0  0  0  0  0
   -9.5166   -5.3102    6.0640 C   0  0  0  0  0  0  0  0  0  0  0  0
   -8.4422   -4.5200    5.5748 C   0  0  0  0  0  0  0  0  0  0  0  0
   -7.4374   -5.1967    4.6084 C   0  0  0  0  0  0  0  0  0  0  0  0
   -7.0870   -4.8235    3.2592 O   0  0  0  0  0  0  0  0  0  0  0  0
   -6.5268   -3.6186    2.8067 C   0  0  0  0  0  0  0  0  0  0  0  0
   -5.0919   -3.1400    3.1367 C   0  0  0  0  0  0  0  0  0  0  0  0
   -3.8106   -3.8426    2.6449 N   0  3  3  0  0  0  0  0  0  0  0  0
   -2.6112   -2.8777    2.7298 C   0  0  0  0  0  0  0  0  0  0  0  0
   -2.6838   -1.7535    1.6380 C   0  0  0  0  0  0  0  0  0  0  0  0
   -3.2262   -2.1955    0.2619 N   0  3  3  0  0  0  0  0  0  0  0  0
   -4.3624   -1.3434   -0.3518 C   0  0  0  0  0  0  0  0  0  0  0  0
   -3.9276    0.0474   -0.8084 C   0  0  0  0  0  0  0  0  0  0  0  0
   -5.0379    0.6922   -1.6704 C   0  0  0  0  0  0  0  0  0  0  0  0
   -4.7052    2.1015   -2.0882 C   0  0  0  0  0  0  0  0  0  0  0  0
   -4.0509    2.3608   -3.3018 C   0  0  0  0  0  0  0  0  0  0  0  0
   -3.7312    3.6713   -3.6697 C   0  0  0  0  0  0  0  0  0  0  0  0
   -4.0648    4.7343   -2.8337 C   0  0  0  0  0  0  0  0  0  0  0  0
   -4.7293    4.4902   -1.6347 C   0  0  0  0  0  0  0  0  0  0  0  0
   -5.0490    3.1822   -1.2637 C   0  0  0  0  0  0  0  0  0  0  0  0
   -3.5529   -3.6882    0.0691 C   0  0  0  0  0  0  0  0  0  0  0  0
   -3.6519   -4.5763    1.3333 C   0  0  0  0  0  0  0  0  0  0  0  0
   -6.1949   -5.8325    5.2061 C   0  0  0  0  0  0  0  0  0  0  0  0
   -5.6873   -6.9670    4.5347 C   0  0  0  0  0  0  0  0  0  0  0  0
   -4.5170   -7.5871    4.9597 C   0  0  0  0  0  0  0  0  0  0  0  0
   -3.8518   -7.0857    6.0650 C   0  0  0  0  0  0  0  0  0  0  0  0
   -2.7029   -7.6512    6.4499 F   0  0  0  0  0  0  0  0  0  0  0  0
   -4.3522   -5.9926    6.7672 C   0  0  0  0  0  0  0  0  0  0  0  0
   -5.5290   -5.3636    6.3420 C   0  0  0  0  0  0  0  0  0  0  0  0
   -8.2949   -3.2411    6.1571 C   0  0  0  0  0  0  0  0  0  0  0  0
   -9.1668   -2.8146    7.1800 C   0  0  0  0  0  0  0  0  0  0  0  0
  -11.1925   -5.5184    7.4442 H   0  0  0  0  0  0  0  0  0  0  0  0
   -9.6859   -6.3239    5.6889 H   0  0  0  0  0  0  0  0  0  0  0  0
   -8.0378   -6.0837    4.3586 H   0  0  0  0  0  0  0  0  0  0  0  0
   -7.2102   -2.8104    3.0883 H   0  0  0  0  0  0  0  0  0  0  0  0
   -6.5797   -3.6817    1.7129 H   0  0  0  0  0  0  0  0  0  0  0  0
   -4.9609   -3.0399    4.2167 H   0  0  0  0  0  0  0  0  0  0  0  0
   -5.0308   -2.1412    2.6967 H   0  0  0  0  0  0  0  0  0  0  0  0
   -3.6607   -4.5816    3.3587 H   0  0  0  0  0  0  0  0  0  0  0  0
   -1.7029   -3.4815    2.5983 H   0  0  0  0  0  0  0  0  0  0  0  0
   -2.5896   -2.4648    3.7438 H   0  0  0  0  0  0  0  0  0  0  0  0
   -1.6785   -1.3519    1.4626 H   0  0  0  0  0  0  0  0  0  0  0  0
   -3.3144   -0.9304    1.9868 H   0  0  0  0  0  0  0  0  0  0  0  0
   -2.4390   -2.0133   -0.3858 H   0  0  0  0  0  0  0  0  0  0  0  0
   -5.1780   -1.3182    0.3769 H   0  0  0  0  0  0  0  0  0  0  0  0
   -4.6972   -1.8887   -1.2417 H   0  0  0  0  0  0  0  0  0  0  0  0
   -3.0089   -0.0161   -1.4040 H   0  0  0  0  0  0  0  0  0  0  0  0
   -3.7118    0.6798    0.0593 H   0  0  0  0  0  0  0  0  0  0  0  0
   -5.9906    0.6965   -1.1232 H   0  0  0  0  0  0  0  0  0  0  0  0
   -5.2200    0.0861   -2.5688 H   0  0  0  0  0  0  0  0  0  0  0  0
   -3.7968    1.5559   -3.9875 H   0  0  0  0  0  0  0  0  0  0  0  0
   -3.2292    3.8699   -4.6149 H   0  0  0  0  0  0  0  0  0  0  0  0
   -3.8195    5.7543   -3.1233 H   0  0  0  0  0  0  0  0  0  0  0  0
   -5.0078    5.3250   -0.9950 H   0  0  0  0  0  0  0  0  0  0  0  0
   -5.5871    3.0246   -0.3326 H   0  0  0  0  0  0  0  0  0  0  0  0
   -2.7813   -4.0684   -0.6141 H   0  0  0  0  0  0  0  0  0  0  0  0
   -4.5069   -3.7586   -0.4587 H   0  0  0  0  0  0  0  0  0  0  0  0
   -2.6900   -5.1099    1.4169 H   0  0  0  0  0  0  0  0  0  0  0  0
   -4.4192   -5.3480    1.2510 H   0  0  0  0  0  0  0  0  0  0  0  0
   -6.2319   -7.3828    3.6844 H   0  0  0  0  0  0  0  0  0  0  0  0
   -4.1463   -8.4711    4.4475 H   0  0  0  0  0  0  0  0  0  0  0  0
   -3.8357   -5.6556    7.6609 H   0  0  0  0  0  0  0  0  0  0  0  0
   -5.9226   -4.5432    6.9387 H   0  0  0  0  0  0  0  0  0  0  0  0
   -7.4856   -2.5853    5.8818 H   0  0  0  0  0  0  0  0  0  0  0  0
   -9.0432   -1.8523    7.6706 H   0  0  0  0  0  0  0  0  0  0  0  0
  1  2  1  0  0  0  0
  2  3  1  0  0  0  0
  2 33  2  0  0  0  0
  3  4  2  0  0  0  0
  3 34  1  0  0  0  0
  4  5  1  0  0  0  0
  4 35  1  0  0  0  0
  5  6  1  0  0  0  0
  5 32  2  0  0  0  0
  6  7  1  0  0  0  0
  6 25  1  0  0  0  0
  6 36  1  0  0  0  0
  7  8  1  0  0  0  0
  8  9  1  0  0  0  0
  8 37  1  0  0  0  0
  8 38  1  0  0  0  0
  9 10  1  0  0  0  0
  9 39  1  0  0  0  0
  9 40  1  0  0  0  0
 10 11  1  0  0  0  0
 10 24  1  0  0  0  0
 10 41  1  0  0  0  0
 11 12  1  0  0  0  0
 11 42  1  0  0  0  0
 11 43  1  0  0  0  0
 12 13  1  0  0  0  0
 12 44  1  0  0  0  0
 12 45  1  0  0  0  0
 13 14  1  0  0  0  0
 13 23  1  0  0  0  0
 13 46  1  0  0  0  0
 14 15  1  0  0  0  0
 14 47  1  0  0  0  0
 14 48  1  0  0  0  0
 15 16  1  0  0  0  0
 15 49  1  0  0  0  0
 15 50  1  0  0  0  0
 16 17  1  0  0  0  0
 16 51  1  0  0  0  0
 16 52  1  0  0  0  0
 17 18  1  0  0  0  0
 17 22  2  0  0  0  0
 18 19  2  0  0  0  0
 18 53  1  0  0  0  0
 19 20  1  0  0  0  0
 19 54  1  0  0  0  0
 20 21  2  0  0  0  0
 20 55  1  0  0  0  0
 21 22  1  0  0  0  0
 21 56  1  0  0  0  0
 22 57  1  0  0  0  0
 23 24  1  0  0  0  0
 23 58  1  0  0  0  0
 23 59  1  0  0  0  0
 24 60  1  0  0  0  0
 24 61  1  0  0  0  0
 25 26  1  0  0  0  0
 25 31  2  0  0  0  0
 26 27  2  0  0  0  0
 26 62  1  0  0  0  0
 27 28  1  0  0  0  0
 27 63  1  0  0  0  0
 28 29  1  0  0  0  0
 28 30  2  0  0  0  0
 30 31  1  0  0  0  0
 30 64  1  0  0  0  0
 31 65  1  0  0  0  0
 32 33  1  0  0  0  0
 32 66  1  0  0  0  0
 33 67  1  0  0  0  0
M  CHG  2  10   1  13   1
M  END
$$$$
